Version 4
SHEET 1 1584 680
WIRE 256 -32 224 -32
WIRE 464 -32 336 -32
WIRE 880 32 864 32
WIRE 992 32 960 32
WIRE 288 112 288 96
WIRE 464 112 464 -32
WIRE 608 112 464 112
WIRE 704 112 608 112
WIRE -112 160 -224 160
WIRE 112 160 -112 160
WIRE 224 160 224 -32
WIRE 224 160 192 160
WIRE 256 160 224 160
WIRE 464 160 464 112
WIRE 464 160 416 160
WIRE 912 160 912 128
WIRE -112 176 -112 160
WIRE 704 176 704 112
WIRE 736 176 704 176
WIRE 864 176 864 32
WIRE 864 176 816 176
WIRE 880 176 864 176
WIRE 256 192 16 192
WIRE 608 192 608 176
WIRE 608 192 576 192
WIRE 992 192 992 32
WIRE 992 192 944 192
WIRE 1072 192 992 192
WIRE 576 208 576 192
WIRE 608 208 608 192
WIRE 736 208 704 208
WIRE 864 208 816 208
WIRE 880 208 864 208
WIRE 16 224 16 192
WIRE 224 224 192 224
WIRE 256 224 224 224
WIRE 464 224 416 224
WIRE 1072 224 1072 192
WIRE 912 256 912 224
WIRE -224 272 -224 240
WIRE -112 272 -112 256
WIRE 464 272 464 224
WIRE 608 272 464 272
WIRE 704 272 704 208
WIRE 704 272 608 272
WIRE 112 304 112 224
WIRE 288 304 288 272
WIRE 16 320 16 288
WIRE 864 320 864 208
WIRE 880 320 864 320
WIRE 992 320 960 320
WIRE 992 336 992 320
WIRE 1072 336 1072 304
WIRE -176 352 -176 336
WIRE 224 384 224 224
WIRE 272 384 224 384
WIRE 464 384 464 272
WIRE 464 384 352 384
WIRE -176 448 -176 432
FLAG -224 272 0
FLAG 112 304 0
FLAG 288 304 0
FLAG -176 336 Vcc
FLAG -176 448 0
FLAG 288 96 Vcc
FLAG -112 272 0
FLAG 576 208 0
FLAG 16 320 0
FLAG 912 128 Vcc
FLAG 912 256 0
FLAG 1072 336 0
FLAG 992 336 0
SYMBOL voltage -224 144 R0
WINDOW 0 39 55 Left 2
WINDOW 3 -61 -4 Left 2
WINDOW 123 0 0 Left 2
WINDOW 39 0 0 Left 2
SYMATTR InstName V1
SYMATTR Value PULSE(0 20m 0 1n 1n 3n 100n 10)
SYMBOL voltage -176 336 R0
WINDOW 123 0 0 Left 2
WINDOW 39 0 0 Left 2
SYMATTR InstName V2
SYMATTR Value 5
SYMBOL Opamps\\LTC6409 320 192 R0
SYMATTR InstName U2
SYMBOL res 368 368 R90
WINDOW 0 0 56 VBottom 2
WINDOW 3 32 56 VTop 2
SYMATTR InstName R1
SYMATTR Value 10K
SYMATTR SpiceLine tol=1 pwr=0.1
SYMBOL res 352 -48 R90
WINDOW 0 0 56 VBottom 2
WINDOW 3 32 56 VTop 2
SYMATTR InstName R2
SYMATTR Value 10K
SYMATTR SpiceLine tol=1 pwr=0.1
SYMBOL res 208 144 R90
WINDOW 0 0 75 VBottom 2
WINDOW 3 -27 35 VTop 2
SYMATTR InstName R3
SYMATTR Value 100
SYMATTR SpiceLine tol=1 pwr=0.1
SYMBOL res 208 208 R90
WINDOW 0 68 71 VBottom 2
WINDOW 3 40 28 VTop 2
SYMATTR InstName R4
SYMATTR Value 100
SYMATTR SpiceLine tol=1 pwr=0.1
SYMBOL res -128 160 R0
SYMATTR InstName R6
SYMATTR Value 51.1
SYMATTR SpiceLine tol=1 pwr=0.1
SYMBOL cap 592 112 R0
SYMATTR InstName C1
SYMATTR Value 390p
SYMATTR SpiceLine V=16 Irms=25.9m Rser=8.35921 Lser=0 mfg="KEMET" pn="C0805C391K4RAC" type="X7R"
SYMBOL cap 592 208 R0
SYMATTR InstName C2
SYMATTR Value 390p
SYMATTR SpiceLine V=16 Irms=25.9m Rser=8.35921 Lser=0 mfg="KEMET" pn="C0805C391K4RAC" type="X7R"
SYMBOL cap 0 224 R0
SYMATTR InstName C3
SYMATTR Value 0.01µ
SYMATTR SpiceLine V=4 Irms=162m Rser=0.395426 Lser=0 mfg="KEMET" pn="C0402C103K7PAC" type="X5R"
SYMBOL res 1056 208 R0
SYMATTR InstName R5
SYMATTR Value 51.1
SYMATTR SpiceLine tol=1 pwr=0.1
SYMBOL res 832 160 R90
WINDOW 0 0 56 VBottom 2
WINDOW 3 32 56 VTop 2
SYMATTR InstName R7
SYMATTR Value 51.1
SYMATTR SpiceLine tol=1 pwr=0.1
SYMBOL res 832 192 R90
WINDOW 0 0 56 VBottom 2
WINDOW 3 32 56 VTop 2
SYMATTR InstName R8
SYMATTR Value 51.1
SYMATTR SpiceLine tol=1 pwr=0.1
SYMBOL res 976 16 R90
WINDOW 0 0 56 VBottom 2
WINDOW 3 32 56 VTop 2
SYMATTR InstName R9
SYMATTR Value 51.1
SYMBOL res 976 304 R90
WINDOW 0 0 56 VBottom 2
WINDOW 3 32 56 VTop 2
SYMATTR InstName R10
SYMATTR Value 51.1
SYMBOL Opamps\\LT1818 912 192 R0
SYMATTR InstName U1
TEXT 544 328 Left 2 !.tran 500n
